<?xml version="1.0" encoding="UTF-8"?>

<!-- generated on 2024-04-10 21:57:06.151904 by osmWebWizard.py v1_19_0+0000-baa66a0f364
<configuration>
    <net-file value="C:\Users\Jeffy Shiju\Desktop\PROJECT\sumo-example\2021-05-01-22-25-37\2024-04-10-21-56-55\osm.net.xml.gz"/>
    <output-trip-file value="C:\Users\Jeffy Shiju\Desktop\PROJECT\sumo-example\2021-05-01-22-25-37\2024-04-10-21-56-55\osm.passenger.trips.xml"/>
    <route-file value="C:\Users\Jeffy Shiju\Desktop\PROJECT\sumo-example\2021-05-01-22-25-37\2024-04-10-21-56-55\osm.passenger.rou.xml"/>
    <prefix value="veh"/>
    <trip-attributes value="departLane=&quot;best&quot;"/>
    <fringe-start-attributes value="departSpeed=&quot;max&quot;"/>
    <vehicle-class value="passenger"/>
    <lanes value="True"/>
    <fringe-factor value="100"/>
    <allow-fringe.min-length value="1000.0"/>
    <via-edge-types value="highway.motorway,highway.motorway_link,highway.trunk_link,highway.primary_link,highway.secondary_link,highway.tertiary_link"/>
    <min-distance value="300.0"/>
    <min-distance.fringe value="10.0"/>
    <remove-loops value="True"/>
    <validate value="True"/>
    <insertion-density value="1000.0"/>
</configuration>
-->

<!-- generated on 2024-04-10 21:57:05 by Eclipse SUMO duarouter Version 1.19.0
<configuration xmlns:xsi="http://www.w3.org/2001/XMLSchema-instance" xsi:noNamespaceSchemaLocation="http://sumo.dlr.de/xsd/duarouterConfiguration.xsd">

    <input>
        <net-file value="C:\Users\Jeffy Shiju\Desktop\PROJECT\sumo-example\2021-05-01-22-25-37\2024-04-10-21-56-55\osm.net.xml.gz"/>
        <route-files value="C:\Users\Jeffy Shiju\Desktop\PROJECT\sumo-example\2021-05-01-22-25-37\2024-04-10-21-56-55\osm.passenger.trips.xml"/>
    </input>

    <output>
        <output-file value="C:\Users\Jeffy Shiju\Desktop\PROJECT\sumo-example\2021-05-01-22-25-37\2024-04-10-21-56-55\osm.passenger.trips.xml.tmp"/>
        <alternatives-output value="NUL"/>
        <write-trips value="true"/>
    </output>

    <processing>
        <remove-loops value="true"/>
    </processing>

    <time>
        <begin value="0.0"/>
        <end value="3600.0"/>
    </time>

    <report>
        <no-warnings value="true"/>
        <ignore-errors value="true"/>
        <no-step-log value="true"/>
    </report>

</configuration>
-->

<routes xmlns:xsi="http://www.w3.org/2001/XMLSchema-instance" xsi:noNamespaceSchemaLocation="http://sumo.dlr.de/xsd/routes_file.xsd">
    <vType id="veh_passenger" vClass="passenger"/>
    <trip id="veh0" type="veh_passenger" depart="0.00" departLane="best" departSpeed="max" from="1119935327#0" to="1119937599#3"/>
    <trip id="veh1" type="veh_passenger" depart="1.79" departLane="best" departSpeed="max" from="-24913267#3" to="1119937599#3"/>
    <trip id="veh2" type="veh_passenger" depart="3.57" departLane="best" departSpeed="max" from="-24913267#3" to="1119937599#3"/>
    <trip id="veh3" type="veh_passenger" depart="5.36" departLane="best" departSpeed="max" from="1125871417" to="1170522572#0"/>
    <trip id="veh4" type="veh_passenger" depart="7.14" departLane="best" departSpeed="max" from="1125871417" to="1170522572#0"/>
    <trip id="veh5" type="veh_passenger" depart="8.93" departLane="best" departSpeed="max" from="-4402037#2" to="1170522572#0"/>
    <trip id="veh6" type="veh_passenger" depart="10.72" departLane="best" departSpeed="max" from="1125871417" to="1170522572#0"/>
    <trip id="veh7" type="veh_passenger" depart="12.50" departLane="best" departSpeed="max" from="1125871417" to="1170522572#0"/>
    <trip id="veh8" type="veh_passenger" depart="14.29" departLane="best" departSpeed="max" from="1119935327#0" to="1119937599#3"/>
    <trip id="veh9" type="veh_passenger" depart="16.07" departLane="best" departSpeed="max" from="-24913267#3" to="1119937599#3"/>
    <trip id="veh10" type="veh_passenger" depart="17.86" departLane="best" departSpeed="max" from="1125871417" to="1170522572#0"/>
    <trip id="veh11" type="veh_passenger" depart="19.64" departLane="best" departSpeed="max" from="1125871417" to="1170522572#0"/>
    <trip id="veh12" type="veh_passenger" depart="21.43" departLane="best" departSpeed="max" from="-24913267#3" to="1119937599#3"/>
    <trip id="veh13" type="veh_passenger" depart="23.22" departLane="best" departSpeed="max" from="1125871417" to="1170522572#0"/>
    <trip id="veh14" type="veh_passenger" depart="25.00" departLane="best" departSpeed="max" from="1119935327#0" to="1119937599#3"/>
    <trip id="veh15" type="veh_passenger" depart="26.79" departLane="best" departSpeed="max" from="1119935327#0" to="1119937599#3"/>
    <trip id="veh16" type="veh_passenger" depart="28.57" departLane="best" departSpeed="max" from="1125871417" to="1170522572#0"/>
    <trip id="veh17" type="veh_passenger" depart="30.36" departLane="best" departSpeed="max" from="1125871417" to="1170522572#0"/>
    <trip id="veh18" type="veh_passenger" depart="32.15" departLane="best" from="132600840#0" to="1170522572#0"/>
    <trip id="veh19" type="veh_passenger" depart="33.93" departLane="best" departSpeed="max" from="-24913267#3" to="1119937599#3"/>
    <trip id="veh20" type="veh_passenger" depart="35.72" departLane="best" departSpeed="max" from="-4402037#2" to="1170522572#0"/>
    <trip id="veh21" type="veh_passenger" depart="37.50" departLane="best" departSpeed="max" from="-4402037#2" to="1170522572#0"/>
    <trip id="veh22" type="veh_passenger" depart="39.29" departLane="best" departSpeed="max" from="-24913267#3" to="1119937599#3"/>
    <trip id="veh23" type="veh_passenger" depart="41.08" departLane="best" departSpeed="max" from="-24913267#3" to="1119937599#3"/>
    <trip id="veh24" type="veh_passenger" depart="42.86" departLane="best" departSpeed="max" from="1125871417" to="1170522572#0"/>
    <trip id="veh25" type="veh_passenger" depart="44.65" departLane="best" departSpeed="max" from="-4402037#2" to="1170522572#0"/>
    <trip id="veh26" type="veh_passenger" depart="46.43" departLane="best" departSpeed="max" from="-4402037#2" to="1170522572#0"/>
    <trip id="veh27" type="veh_passenger" depart="48.22" departLane="best" departSpeed="max" from="-4402037#2" to="1170522572#0"/>
    <trip id="veh28" type="veh_passenger" depart="50.01" departLane="best" departSpeed="max" from="1119935327#0" to="1119937599#3"/>
    <trip id="veh29" type="veh_passenger" depart="51.79" departLane="best" departSpeed="max" from="1119935327#0" to="1119937599#3"/>
    <trip id="veh30" type="veh_passenger" depart="53.58" departLane="best" departSpeed="max" from="-4402037#2" to="1170522572#0"/>
    <trip id="veh31" type="veh_passenger" depart="55.36" departLane="best" departSpeed="max" from="1125871417" to="1170522572#0"/>
    <trip id="veh32" type="veh_passenger" depart="57.15" departLane="best" departSpeed="max" from="-24913267#3" to="1119937599#3"/>
    <trip id="veh33" type="veh_passenger" depart="58.93" departLane="best" departSpeed="max" from="-4402037#2" to="1170522572#0"/>
    <trip id="veh34" type="veh_passenger" depart="60.72" departLane="best" departSpeed="max" from="1125871417" to="1170522572#0"/>
    <trip id="veh35" type="veh_passenger" depart="62.51" departLane="best" departSpeed="max" from="-24913267#3" to="1119937599#3"/>
    <trip id="veh36" type="veh_passenger" depart="64.29" departLane="best" departSpeed="max" from="1119935327#0" to="1119937599#3"/>
    <trip id="veh37" type="veh_passenger" depart="66.08" departLane="best" departSpeed="max" from="-4402037#2" to="1170522572#0"/>
    <trip id="veh38" type="veh_passenger" depart="67.86" departLane="best" departSpeed="max" from="1125871417" to="1170522572#0"/>
    <trip id="veh39" type="veh_passenger" depart="69.65" departLane="best" departSpeed="max" from="1125871417" to="1170522572#0"/>
    <trip id="veh40" type="veh_passenger" depart="71.44" departLane="best" departSpeed="max" from="1125871417" to="1170522572#0"/>
    <trip id="veh41" type="veh_passenger" depart="73.22" departLane="best" departSpeed="max" from="-24913267#3" to="1119937599#3"/>
    <trip id="veh42" type="veh_passenger" depart="75.01" departLane="best" departSpeed="max" from="-24913267#3" to="1119937599#3"/>
    <trip id="veh43" type="veh_passenger" depart="76.79" departLane="best" departSpeed="max" from="-4402037#2" to="1170522572#0"/>
    <trip id="veh44" type="veh_passenger" depart="78.58" departLane="best" departSpeed="max" from="-4402037#2" to="1170522572#0"/>
    <trip id="veh45" type="veh_passenger" depart="80.37" departLane="best" departSpeed="max" from="1125871417" to="1170522572#0"/>
    <trip id="veh46" type="veh_passenger" depart="82.15" departLane="best" from="1125871619#3" to="1170522572#0"/>
    <trip id="veh47" type="veh_passenger" depart="83.94" departLane="best" departSpeed="max" from="-4402037#2" to="1170522572#0"/>
    <trip id="veh48" type="veh_passenger" depart="85.72" departLane="best" departSpeed="max" from="-4402037#2" to="1170522572#0"/>
    <trip id="veh49" type="veh_passenger" depart="87.51" departLane="best" departSpeed="max" from="1125871417" to="1170522572#0"/>
    <trip id="veh50" type="veh_passenger" depart="89.30" departLane="best" from="132600840#0" to="1170522572#0"/>
    <trip id="veh51" type="veh_passenger" depart="91.08" departLane="best" departSpeed="max" from="-4402037#2" to="1170522572#0"/>
    <trip id="veh52" type="veh_passenger" depart="92.87" departLane="best" departSpeed="max" from="1119935327#0" to="1119937599#3"/>
    <trip id="veh53" type="veh_passenger" depart="94.65" departLane="best" departSpeed="max" from="-24913267#3" to="1119937599#3"/>
    <trip id="veh54" type="veh_passenger" depart="96.44" departLane="best" departSpeed="max" from="1119935327#0" to="1119937599#3"/>
    <trip id="veh55" type="veh_passenger" depart="98.22" departLane="best" departSpeed="max" from="1119935327#0" to="1119937599#3"/>
    <trip id="veh56" type="veh_passenger" depart="100.01" departLane="best" departSpeed="max" from="1125871417" to="1170522572#0"/>
    <trip id="veh57" type="veh_passenger" depart="101.80" departLane="best" departSpeed="max" from="1125871417" to="1170522572#0"/>
    <trip id="veh58" type="veh_passenger" depart="103.58" departLane="best" departSpeed="max" from="1125871417" to="1170522572#0"/>
    <trip id="veh59" type="veh_passenger" depart="105.37" departLane="best" departSpeed="max" from="1119935327#0" to="1119937599#3"/>
    <trip id="veh60" type="veh_passenger" depart="107.15" departLane="best" departSpeed="max" from="1119935327#0" to="1119937599#3"/>
    <trip id="veh61" type="veh_passenger" depart="108.94" departLane="best" departSpeed="max" from="-4402037#2" to="1170522572#0"/>
    <trip id="veh62" type="veh_passenger" depart="110.73" departLane="best" departSpeed="max" from="-24913267#3" to="1119937599#3"/>
    <trip id="veh63" type="veh_passenger" depart="112.51" departLane="best" departSpeed="max" from="1119935327#0" to="1119937599#3"/>
    <trip id="veh64" type="veh_passenger" depart="114.30" departLane="best" departSpeed="max" from="-4402037#2" to="1170522572#0"/>
    <trip id="veh65" type="veh_passenger" depart="116.08" departLane="best" departSpeed="max" from="1125871417" to="1170522572#0"/>
    <trip id="veh66" type="veh_passenger" depart="117.87" departLane="best" departSpeed="max" from="-24913267#3" to="1119937599#3"/>
    <trip id="veh67" type="veh_passenger" depart="119.66" departLane="best" from="-4402037#1" to="1170522572#0"/>
    <trip id="veh68" type="veh_passenger" depart="121.44" departLane="best" departSpeed="max" from="1119935327#0" to="1119937599#3"/>
    <trip id="veh69" type="veh_passenger" depart="123.23" departLane="best" departSpeed="max" from="1125871417" to="1170522572#0"/>
    <trip id="veh70" type="veh_passenger" depart="125.01" departLane="best" departSpeed="max" from="1119935327#0" to="1119937599#3"/>
    <trip id="veh71" type="veh_passenger" depart="126.80" departLane="best" departSpeed="max" from="1125871417" to="1170522572#0"/>
    <trip id="veh72" type="veh_passenger" depart="128.58" departLane="best" departSpeed="max" from="1125871417" to="1170522572#0"/>
    <trip id="veh73" type="veh_passenger" depart="130.37" departLane="best" departSpeed="max" from="-4402037#2" to="1170522572#0"/>
    <trip id="veh74" type="veh_passenger" depart="132.16" departLane="best" departSpeed="max" from="-4402037#2" to="1170522572#0"/>
    <trip id="veh75" type="veh_passenger" depart="133.94" departLane="best" departSpeed="max" from="1125871417" to="1170522572#0"/>
    <trip id="veh76" type="veh_passenger" depart="135.73" departLane="best" departSpeed="max" from="-24913267#3" to="1119937599#3"/>
    <trip id="veh77" type="veh_passenger" depart="137.51" departLane="best" departSpeed="max" from="-24913267#3" to="1119937599#3"/>
    <trip id="veh78" type="veh_passenger" depart="139.30" departLane="best" departSpeed="max" from="-24913267#3" to="1119937599#3"/>
    <trip id="veh79" type="veh_passenger" depart="141.09" departLane="best" from="1125871619#1" to="1170522572#0"/>
    <trip id="veh80" type="veh_passenger" depart="142.87" departLane="best" departSpeed="max" from="-24913267#3" to="1119937599#3"/>
    <trip id="veh81" type="veh_passenger" depart="144.66" departLane="best" departSpeed="max" from="-24913267#3" to="1119937599#3"/>
    <trip id="veh82" type="veh_passenger" depart="146.44" departLane="best" departSpeed="max" from="1125871417" to="1170522572#0"/>
    <trip id="veh83" type="veh_passenger" depart="148.23" departLane="best" departSpeed="max" from="1119935327#0" to="1119937599#3"/>
    <trip id="veh84" type="veh_passenger" depart="150.02" departLane="best" departSpeed="max" from="1125871417" to="1170522572#0"/>
    <trip id="veh85" type="veh_passenger" depart="151.80" departLane="best" departSpeed="max" from="1125871417" to="1170522572#0"/>
    <trip id="veh86" type="veh_passenger" depart="153.59" departLane="best" departSpeed="max" from="-4402037#2" to="1170522572#0"/>
    <trip id="veh87" type="veh_passenger" depart="155.37" departLane="best" departSpeed="max" from="-24913267#3" to="1119937599#3"/>
    <trip id="veh88" type="veh_passenger" depart="157.16" departLane="best" departSpeed="max" from="1125871417" to="1170522572#0"/>
    <trip id="veh89" type="veh_passenger" depart="158.95" departLane="best" departSpeed="max" from="1125871417" to="1170522572#0"/>
    <trip id="veh90" type="veh_passenger" depart="160.73" departLane="best" departSpeed="max" from="1125871417" to="1170522572#0"/>
    <trip id="veh91" type="veh_passenger" depart="162.52" departLane="best" departSpeed="max" from="-24913267#3" to="1119937599#3"/>
    <trip id="veh92" type="veh_passenger" depart="164.30" departLane="best" departSpeed="max" from="1119935327#0" to="1119937599#3"/>
    <trip id="veh93" type="veh_passenger" depart="166.09" departLane="best" departSpeed="max" from="-24913267#3" to="1119937599#3"/>
    <trip id="veh94" type="veh_passenger" depart="167.87" departLane="best" departSpeed="max" from="1125871417" to="1170522572#0"/>
    <trip id="veh95" type="veh_passenger" depart="169.66" departLane="best" departSpeed="max" from="-4402037#2" to="1170522572#0"/>
    <trip id="veh96" type="veh_passenger" depart="171.45" departLane="best" departSpeed="max" from="1125871417" to="1170522572#0"/>
    <trip id="veh97" type="veh_passenger" depart="173.23" departLane="best" departSpeed="max" from="-24913267#3" to="1119937599#3"/>
    <trip id="veh98" type="veh_passenger" depart="175.02" departLane="best" departSpeed="max" from="1125871417" to="1170522572#0"/>
    <trip id="veh99" type="veh_passenger" depart="176.80" departLane="best" departSpeed="max" from="1119935327#0" to="1119937599#3"/>
    <trip id="veh100" type="veh_passenger" depart="178.59" departLane="best" departSpeed="max" from="-24913267#3" to="1119937599#3"/>
    <trip id="veh101" type="veh_passenger" depart="180.38" departLane="best" departSpeed="max" from="1125871417" to="1170522572#0"/>
    <trip id="veh102" type="veh_passenger" depart="182.16" departLane="best" departSpeed="max" from="1119935327#0" to="1119937599#3"/>
    <trip id="veh103" type="veh_passenger" depart="183.95" departLane="best" departSpeed="max" from="1125871417" to="1170522572#0"/>
    <trip id="veh104" type="veh_passenger" depart="185.73" departLane="best" departSpeed="max" from="-4402037#2" to="1170522572#0"/>
    <trip id="veh105" type="veh_passenger" depart="187.52" departLane="best" departSpeed="max" from="-4402037#2" to="1170522572#0"/>
    <trip id="veh106" type="veh_passenger" depart="189.31" departLane="best" departSpeed="max" from="1125871417" to="1170522572#0"/>
    <trip id="veh107" type="veh_passenger" depart="191.09" departLane="best" departSpeed="max" from="1119935327#0" to="1119937599#3"/>
    <trip id="veh108" type="veh_passenger" depart="192.88" departLane="best" departSpeed="max" from="1119935327#0" to="1119937599#3"/>
    <trip id="veh109" type="veh_passenger" depart="194.66" departLane="best" departSpeed="max" from="1125871417" to="1170522572#0"/>
    <trip id="veh110" type="veh_passenger" depart="196.45" departLane="best" departSpeed="max" from="1125871417" to="1170522572#0"/>
    <trip id="veh111" type="veh_passenger" depart="198.23" departLane="best" departSpeed="max" from="1119935327#0" to="1119937599#3"/>
    <trip id="veh112" type="veh_passenger" depart="200.02" departLane="best" departSpeed="max" from="-4402037#2" to="1170522572#0"/>
    <trip id="veh113" type="veh_passenger" depart="201.81" departLane="best" departSpeed="max" from="1119935327#0" to="1119937599#3"/>
    <trip id="veh114" type="veh_passenger" depart="203.59" departLane="best" departSpeed="max" from="1125871417" to="1170522572#0"/>
    <trip id="veh115" type="veh_passenger" depart="205.38" departLane="best" from="1125871619#3" to="1170522572#0"/>
    <trip id="veh116" type="veh_passenger" depart="207.16" departLane="best" departSpeed="max" from="1125871417" to="1170522572#0"/>
    <trip id="veh117" type="veh_passenger" depart="208.95" departLane="best" departSpeed="max" from="1119935327#0" to="1119937599#3"/>
    <trip id="veh118" type="veh_passenger" depart="210.74" departLane="best" departSpeed="max" from="-4402037#2" to="1170522572#0"/>
    <trip id="veh119" type="veh_passenger" depart="212.52" departLane="best" departSpeed="max" from="1125871417" to="1170522572#0"/>
    <trip id="veh120" type="veh_passenger" depart="214.31" departLane="best" departSpeed="max" from="1125871417" to="1170522572#0"/>
    <trip id="veh121" type="veh_passenger" depart="216.09" departLane="best" departSpeed="max" from="-24913267#3" to="1119937599#3"/>
    <trip id="veh122" type="veh_passenger" depart="217.88" departLane="best" departSpeed="max" from="1125871417" to="1170522572#0"/>
    <trip id="veh123" type="veh_passenger" depart="219.67" departLane="best" departSpeed="max" from="-24913267#3" to="1119937599#3"/>
    <trip id="veh124" type="veh_passenger" depart="221.45" departLane="best" departSpeed="max" from="-4402037#2" to="1170522572#0"/>
    <trip id="veh125" type="veh_passenger" depart="223.24" departLane="best" departSpeed="max" from="-24913267#3" to="1119937599#3"/>
    <trip id="veh126" type="veh_passenger" depart="225.02" departLane="best" departSpeed="max" from="1125871417" to="1170522572#0"/>
    <trip id="veh127" type="veh_passenger" depart="226.81" departLane="best" departSpeed="max" from="-24913267#3" to="1119937599#3"/>
    <trip id="veh128" type="veh_passenger" depart="228.60" departLane="best" departSpeed="max" from="-24913267#3" to="1119937599#3"/>
    <trip id="veh129" type="veh_passenger" depart="230.38" departLane="best" departSpeed="max" from="1125871417" to="1170522572#0"/>
    <trip id="veh130" type="veh_passenger" depart="232.17" departLane="best" departSpeed="max" from="-4402037#2" to="1170522572#0"/>
    <trip id="veh131" type="veh_passenger" depart="233.95" departLane="best" departSpeed="max" from="-24913267#3" to="1119937599#3"/>
    <trip id="veh132" type="veh_passenger" depart="235.74" departLane="best" departSpeed="max" from="1125871417" to="1170522572#0"/>
    <trip id="veh133" type="veh_passenger" depart="237.52" departLane="best" departSpeed="max" from="1119935327#0" to="1119937599#3"/>
    <trip id="veh134" type="veh_passenger" depart="239.31" departLane="best" departSpeed="max" from="-24913267#3" to="1119937599#3"/>
    <trip id="veh135" type="veh_passenger" depart="241.10" departLane="best" departSpeed="max" from="1125871417" to="1170522572#0"/>
    <trip id="veh136" type="veh_passenger" depart="242.88" departLane="best" departSpeed="max" from="-24913267#3" to="1119937599#3"/>
    <trip id="veh137" type="veh_passenger" depart="244.67" departLane="best" departSpeed="max" from="-24913267#3" to="1119937599#3"/>
    <trip id="veh138" type="veh_passenger" depart="246.45" departLane="best" departSpeed="max" from="1119935327#0" to="1119937599#3"/>
    <trip id="veh139" type="veh_passenger" depart="248.24" departLane="best" departSpeed="max" from="-24913267#3" to="1119937599#3"/>
    <trip id="veh140" type="veh_passenger" depart="250.03" departLane="best" departSpeed="max" from="1125871417" to="1170522572#0"/>
    <trip id="veh141" type="veh_passenger" depart="251.81" departLane="best" departSpeed="max" from="1125871417" to="1170522572#0"/>
    <trip id="veh142" type="veh_passenger" depart="253.60" departLane="best" departSpeed="max" from="1125871417" to="1170522572#0"/>
    <trip id="veh143" type="veh_passenger" depart="255.38" departLane="best" departSpeed="max" from="-4402037#2" to="1170522572#0"/>
    <trip id="veh144" type="veh_passenger" depart="257.17" departLane="best" departSpeed="max" from="1119935327#0" to="1119937599#3"/>
    <trip id="veh145" type="veh_passenger" depart="258.96" departLane="best" departSpeed="max" from="1119935327#0" to="1119937599#3"/>
    <trip id="veh146" type="veh_passenger" depart="260.74" departLane="best" departSpeed="max" from="1125871417" to="1170522572#0"/>
    <trip id="veh147" type="veh_passenger" depart="262.53" departLane="best" departSpeed="max" from="-24913267#3" to="1119937599#3"/>
    <trip id="veh148" type="veh_passenger" depart="264.31" departLane="best" departSpeed="max" from="1119935327#0" to="1119937599#3"/>
    <trip id="veh149" type="veh_passenger" depart="266.10" departLane="best" departSpeed="max" from="1119935327#0" to="1119937599#3"/>
    <trip id="veh150" type="veh_passenger" depart="267.89" departLane="best" departSpeed="max" from="1125871417" to="1170522572#0"/>
    <trip id="veh151" type="veh_passenger" depart="269.67" departLane="best" departSpeed="max" from="1119935327#0" to="1119937599#3"/>
    <trip id="veh152" type="veh_passenger" depart="271.46" departLane="best" departSpeed="max" from="-24913267#3" to="1119937599#3"/>
    <trip id="veh153" type="veh_passenger" depart="273.24" departLane="best" departSpeed="max" from="1125871417" to="1170522572#0"/>
    <trip id="veh154" type="veh_passenger" depart="275.03" departLane="best" departSpeed="max" from="1119935327#0" to="1119937599#3"/>
    <trip id="veh155" type="veh_passenger" depart="276.81" departLane="best" departSpeed="max" from="-4402037#2" to="1170522572#0"/>
    <trip id="veh156" type="veh_passenger" depart="278.60" departLane="best" departSpeed="max" from="1125871417" to="1170522572#0"/>
    <trip id="veh157" type="veh_passenger" depart="280.39" departLane="best" departSpeed="max" from="-4402037#2" to="1170522572#0"/>
    <trip id="veh158" type="veh_passenger" depart="282.17" departLane="best" departSpeed="max" from="-4402037#2" to="1170522572#0"/>
    <trip id="veh159" type="veh_passenger" depart="283.96" departLane="best" departSpeed="max" from="1119935327#0" to="1119937599#3"/>
    <trip id="veh160" type="veh_passenger" depart="285.74" departLane="best" departSpeed="max" from="-4402037#2" to="1170522572#0"/>
    <trip id="veh161" type="veh_passenger" depart="287.53" departLane="best" departSpeed="max" from="-24913267#3" to="1119937599#3"/>
    <trip id="veh162" type="veh_passenger" depart="289.32" departLane="best" departSpeed="max" from="-4402037#2" to="1170522572#0"/>
    <trip id="veh163" type="veh_passenger" depart="291.10" departLane="best" departSpeed="max" from="1125871417" to="1170522572#0"/>
    <trip id="veh164" type="veh_passenger" depart="292.89" departLane="best" departSpeed="max" from="-24913267#3" to="1119937599#3"/>
    <trip id="veh165" type="veh_passenger" depart="294.67" departLane="best" departSpeed="max" from="1119935327#0" to="1119937599#3"/>
    <trip id="veh166" type="veh_passenger" depart="296.46" departLane="best" departSpeed="max" from="1125871417" to="1170522572#0"/>
    <trip id="veh167" type="veh_passenger" depart="298.25" departLane="best" departSpeed="max" from="1119935327#0" to="1119937599#3"/>
    <trip id="veh168" type="veh_passenger" depart="300.03" departLane="best" departSpeed="max" from="1125871417" to="1170522572#0"/>
    <trip id="veh169" type="veh_passenger" depart="301.82" departLane="best" departSpeed="max" from="1125871417" to="1170522572#0"/>
    <trip id="veh170" type="veh_passenger" depart="303.60" departLane="best" departSpeed="max" from="-24913267#3" to="1119937599#3"/>
    <trip id="veh171" type="veh_passenger" depart="305.39" departLane="best" departSpeed="max" from="1119935327#0" to="1119937599#3"/>
    <trip id="veh172" type="veh_passenger" depart="307.17" departLane="best" departSpeed="max" from="-4402037#2" to="1170522572#0"/>
    <trip id="veh173" type="veh_passenger" depart="308.96" departLane="best" departSpeed="max" from="-4402037#2" to="1170522572#0"/>
    <trip id="veh174" type="veh_passenger" depart="310.75" departLane="best" departSpeed="max" from="1125871417" to="1170522572#0"/>
    <trip id="veh175" type="veh_passenger" depart="312.53" departLane="best" departSpeed="max" from="-24913267#3" to="1119937599#3"/>
    <trip id="veh176" type="veh_passenger" depart="314.32" departLane="best" departSpeed="max" from="1125871417" to="1170522572#0"/>
    <trip id="veh177" type="veh_passenger" depart="316.10" departLane="best" departSpeed="max" from="-24913267#3" to="1119937599#3"/>
    <trip id="veh178" type="veh_passenger" depart="317.89" departLane="best" departSpeed="max" from="-4402037#2" to="1170522572#0"/>
    <trip id="veh179" type="veh_passenger" depart="319.68" departLane="best" departSpeed="max" from="1119935327#0" to="1119937599#3"/>
    <trip id="veh180" type="veh_passenger" depart="321.46" departLane="best" departSpeed="max" from="-4402037#2" to="1170522572#0"/>
    <trip id="veh181" type="veh_passenger" depart="323.25" departLane="best" departSpeed="max" from="1125871417" to="1170522572#0"/>
    <trip id="veh182" type="veh_passenger" depart="325.03" departLane="best" departSpeed="max" from="1125871417" to="1170522572#0"/>
    <trip id="veh183" type="veh_passenger" depart="326.82" departLane="best" departSpeed="max" from="1125871417" to="1170522572#0"/>
    <trip id="veh184" type="veh_passenger" depart="328.61" departLane="best" departSpeed="max" from="-4402037#2" to="1170522572#0"/>
    <trip id="veh185" type="veh_passenger" depart="330.39" departLane="best" departSpeed="max" from="-4402037#2" to="1170522572#0"/>
    <trip id="veh186" type="veh_passenger" depart="332.18" departLane="best" departSpeed="max" from="1125871417" to="1170522572#0"/>
    <trip id="veh187" type="veh_passenger" depart="333.96" departLane="best" departSpeed="max" from="1125871417" to="1170522572#0"/>
    <trip id="veh188" type="veh_passenger" depart="335.75" departLane="best" departSpeed="max" from="1125871417" to="1170522572#0"/>
    <trip id="veh189" type="veh_passenger" depart="337.54" departLane="best" departSpeed="max" from="-24913267#3" to="1119937599#3"/>
    <trip id="veh190" type="veh_passenger" depart="339.32" departLane="best" departSpeed="max" from="1125871417" to="1170522572#0"/>
    <trip id="veh191" type="veh_passenger" depart="341.11" departLane="best" departSpeed="max" from="-24913267#3" to="1119937599#3"/>
    <trip id="veh192" type="veh_passenger" depart="342.89" departLane="best" departSpeed="max" from="1125871417" to="1170522572#0"/>
    <trip id="veh193" type="veh_passenger" depart="344.68" departLane="best" departSpeed="max" from="-24913267#3" to="1119937599#3"/>
    <trip id="veh194" type="veh_passenger" depart="346.46" departLane="best" departSpeed="max" from="-4402037#2" to="1170522572#0"/>
    <trip id="veh195" type="veh_passenger" depart="348.25" departLane="best" departSpeed="max" from="1119935327#0" to="1119937599#3"/>
    <trip id="veh196" type="veh_passenger" depart="350.04" departLane="best" departSpeed="max" from="-4402037#2" to="1170522572#0"/>
    <trip id="veh197" type="veh_passenger" depart="351.82" departLane="best" departSpeed="max" from="1125871417" to="1170522572#0"/>
    <trip id="veh198" type="veh_passenger" depart="353.61" departLane="best" departSpeed="max" from="-24913267#3" to="1119937599#3"/>
    <trip id="veh199" type="veh_passenger" depart="355.39" departLane="best" departSpeed="max" from="-4402037#2" to="1170522572#0"/>
    <trip id="veh200" type="veh_passenger" depart="357.18" departLane="best" departSpeed="max" from="1119935327#0" to="1119937599#3"/>
    <trip id="veh201" type="veh_passenger" depart="358.97" departLane="best" departSpeed="max" from="1125871417" to="1170522572#0"/>
    <trip id="veh202" type="veh_passenger" depart="360.75" departLane="best" departSpeed="max" from="1125871417" to="1170522572#0"/>
    <trip id="veh203" type="veh_passenger" depart="362.54" departLane="best" departSpeed="max" from="1125871417" to="1170522572#0"/>
    <trip id="veh204" type="veh_passenger" depart="364.32" departLane="best" from="1119935543#0" to="1119937599#3"/>
    <trip id="veh205" type="veh_passenger" depart="366.11" departLane="best" departSpeed="max" from="-24913267#3" to="1119937599#3"/>
    <trip id="veh206" type="veh_passenger" depart="367.90" departLane="best" departSpeed="max" from="1125871417" to="1170522572#0"/>
    <trip id="veh207" type="veh_passenger" depart="369.68" departLane="best" from="-4402037#0" to="1170522572#0"/>